
Spectre (R) Circuit Simulator
Version 19.1.0.237.isr3 64bit -- 3 Jan 2020
Copyright (C) 1989-2019 Cadence Design Systems, Inc. All rights reserved worldwide. Cadence and Spectre are registered trademarks of Cadence Design Systems, Inc. All others are the property of their respective holders.

Includes RSA BSAFE(R) Cryptographic or Security Protocol Software from RSA Security, Inc.

User: lawrence   Host: lillywhite.utc.simcenter.edu   HostID: C70ABF00   PID: 712
Memory  available: 2.3386 GB  physical: 16.5765 GB
Linux   : CentOS Linux release 7.9.2009 (Core)
CPU Type: Intel(R) Xeon(R) CPU E5-1650 v3 @ 3.50GHz
        Socket: Processors [Frequency] (Hyperthreaded Processor)
        0:       0 [3600.0] (  6 ),  1 [3633.7] (  7 ),  2 [2757.2] (  8 )
                 3 [3607.7] (  9 ),  4 [3610.4] ( 10 ),  5 [3627.3] ( 11 )
        
System load averages (1min, 5min, 15min) : 9.4 %, 9.7 %, 9.3 %
Hyperthreading is enabled


Simulating `input/SL_inv_1x/test1[A.scs' on lillywhite.utc.simcenter.edu at 10:16:02 PM, Fri Sep 9, 2022 (process id: 712).
Current working directory: /home/lawrence/SkySim
Command line:
    /usr/local/cadence/installs/SPECTRE191/tools/bin/spectre -64  \
        input/SL_inv_1x/test1\[A.scs  \
        -I//home/PDKs/Skywater/V1.10.500/MODELS/SPECTRE/c9fh-3r/Models/  \
        -format psfascii -raw output/SL_inv_1x/test1\[A/psf

Loading /usr/local/cadence/installs/SPECTRE191/tools.lnx86/cmi/lib/64bit/5.0/libinfineon_sh.so ...
Loading /usr/local/cadence/installs/SPECTRE191/tools.lnx86/cmi/lib/64bit/5.0/libphilips_o_sh.so ...
Loading /usr/local/cadence/installs/SPECTRE191/tools.lnx86/cmi/lib/64bit/5.0/libphilips_sh.so ...
Loading /usr/local/cadence/installs/SPECTRE191/tools.lnx86/cmi/lib/64bit/5.0/libsparam_sh.so ...
Loading /usr/local/cadence/installs/SPECTRE191/tools.lnx86/cmi/lib/64bit/5.0/libstmodels_sh.so ...

Error found by spectre.
    ERROR (CMI-2011): Unable to open input file `input/SL_inv_1x/test1[A.scs'.
        No such file or directory.


Aggregate audit (10:16:02 PM, Fri Sep 9, 2022):
Time used: CPU = 143 ms, elapsed = 148 ms, util. = 96.4%.
Time spent in licensing: elapsed = 75.5 ms, percentage of total = 50.9%.
Peak memory used = 55.2 Mbytes.
Simulation started at: 10:16:02 PM, Fri Sep 9, 2022, ended at: 10:16:02 PM, Fri Sep 9, 2022, with elapsed time (wall clock): 148 ms.
spectre completes with 1 error, 0 warnings, and 0 notices.
spectre terminated prematurely due to fatal error.
